docs/samples/psse/110226n.raw
@!IC, SBASE,REV,XFRRAT,NXFRAT,BASFRQ
0,   100.00, 34,     0,     1, 50.00     / PSS(R)E 34 RAW created by rawd34  WED, FEB 11 2026  14:43
OPERATION STUDY
CPF_03 JAN 2025
GENERAL, THRSHZ=0.0001, PQBRAK=0.7, BLOWUP=5.0
GAUSS, ITMX=100, ACCP=1.6, ACCQ=1.6, ACCM=1.0, TOL=0.0001
NEWTON, ITMXN=20, ACCN=1.0, TOLN=0.2, VCTOLQ=0.2, VCTOLV=0.00001, DVLIM=0.99, NDVFCT=0.99
ADJUST, ADJTHR=0.005, ACCTAP=1.0, TAPLIM=0.05, SWVBND=100.0, MXTPSS=99, MXSWIM=10
TYSL, ITMXTY=20, ACCTY=1.0, TOLTY=0.00001
SOLVER, FNSL, ACTAPS=0, AREAIN=0, PHSHFT=0, DCTAPS=1, SWSHNT=0, FLATST=0, VARLIM=0, NONDIV=0
RATING, 1, "RATE1 ", "RATING SET 1                    "
RATING, 2, "RATE2 ", "RATING SET 2                    "
RATING, 3, "RATE3 ", "RATING SET 3                    "
RATING, 4, "RATE4 ", "RATING SET 4                    "
RATING, 5, "RATE5 ", "RATING SET 5                    "
RATING, 6, "RATE6 ", "RATING SET 6                    "
RATING, 7, "RATE7 ", "RATING SET 7                    "
RATING, 8, "RATE8 ", "RATING SET 8                    "
RATING, 9, "RATE9 ", "RATING SET 9                    "
RATING,10, "RATE10", "RATING SET 10                   "
RATING,11, "RATE11", "RATING SET 11                   "
RATING,12, "RATE12", "RATING SET 12                   "
0 / END OF SYSTEM-WIDE DATA, BEGIN BUS DATA
@!   I,'NAME        ', BASKV, IDE,AREA,ZONE,OWNER, VM,        VA,    NVHI,   NVLO,   EVHI,   EVLO
   106,'SDAOFIC     ', 132.0000,1,   1,   1,   1,1.02285, -12.1342,1.10000,0.90000,1.10000,0.90000
  1498,'SDAO132     ', 132.0000,1,   3,  14,   5,1.02309, -12.1374,1.10000,0.90000,1.10000,0.90000
  1960,'NURG132     ', 132.0000,1,   1,   2,   1,1.02473, -10.0720,1.10000,0.90000,1.10000,0.90000
  1962,'KHTE132     ', 132.0000,4,   1,   3, 100,1.00000,   0.0000,1.10000,0.90000,1.10000,0.90000
  2011,'            ',  22.0000,1,  99,  99,  99,1.02578,   6.5678,1.10000,0.90000,1.10000,0.90000
  2013,'            ',  22.0000,1,  99,  99,  99,1.02570,   6.5573,1.10000,0.90000,1.10000,0.90000
  2014,'            ',  22.0000,1,  99,  99,  99,1.02558,   6.5423,1.10000,0.90000,1.10000,0.90000
  2025,'            ',  22.0000,1,  99,  99,  99,1.00346,   1.3437,1.10000,0.90000,1.10000,0.90000
  2033,'            ',  22.0000,1,  99,  99,  99,0.99736,   0.4309,1.10000,0.90000,1.10000,0.90000
  2041,'            ',  22.0000,1,  99,  99,  99,0.98362,   0.2709,1.10000,0.90000,1.10000,0.90000
  2042,'            ',  22.0000,4,  99,  99,  99,1.00000,   0.0000,1.10000,0.90000,1.10000,0.90000
  2051,'            ',  22.0000,1,  99,  99,  99,1.03680,   8.2633,1.10000,0.90000,1.10000,0.90000
  2052,'            ',  22.0000,1,  99,  99,  99,1.03764,   8.3721,1.10000,0.90000,1.10000,0.90000
  2053,'            ',  22.0000,1,  99,  99,  99,1.03751,   8.3591,1.10000,0.90000,1.10000,0.90000
  2054,'            ',  22.0000,1,  99,  99,  99,1.03782,   8.4011,1.10000,0.90000,1.10000,0.90000
  2061,'            ',  22.0000,1,  99,  99,  99,1.01246,   7.0408,1.10000,0.90000,1.10000,0.90000
  2062,'            ',  22.0000,1,  99,  99,  99,1.01246,   7.0408,1.10000,0.90000,1.10000,0.90000
  2063,'            ',  22.0000,1,  99,  99,  99,1.01316,   7.3027,1.10000,0.90000,1.10000,0.90000
  2064,'            ',  22.0000,1,  99,  99,  99,1.01311,   7.2561,1.10000,0.90000,1.10000,0.90000
  2071,'            ',  22.0000,1,  99,  99,  99,1.00374,   4.6280,1.10000,0.90000,1.10000,0.90000
  2072,'            ',  22.0000,1,  99,  99,  99,1.04491,  11.6043,1.10000,0.90000,1.10000,0.90000
  2073,'            ',  22.0000,1,  99,  99,  99,1.04497,  11.6088,1.10000,0.90000,1.10000,0.90000
  2074,'            ',  22.0000,1,  99,  99,  99,1.00245,   4.3798,1.10000,0.90000,1.10000,0.90000
  2078,'            ',  22.0000,4,  99,  99,  99,1.00000,   0.0000,1.10000,0.90000,1.10000,0.90000
  2081,'            ',  22.0000,1,  99,  99,  99,0.99660,  -0.3180,1.10000,0.90000,1.10000,0.90000
  2082,'            ',  22.0000,1,  99,  99,  99,0.99660,  -0.3180,1.10000,0.90000,1.10000,0.90000
  2083,'            ',  22.0000,1,  99,  99,  99,0.99660,  -0.3180,1.10000,0.90000,1.10000,0.90000
  2084,'            ',  22.0000,1,  99,  99,  99,0.99667,  -0.3096,1.10000,0.90000,1.10000,0.90000
  2085,'            ',  22.0000,1,  99,  99,  99,0.99667,  -0.3096,1.10000,0.90000,1.10000,0.90000
  2101,'            ',  22.0000,1,  99,  99,  99,0.99535,   2.5915,1.10000,0.90000,1.10000,0.90000
  2102,'            ',  22.0000,1,  99,  99,  99,0.99535,   2.5915,1.10000,0.90000,1.10000,0.90000
  2103,'            ',  22.0000,1,  99,  99,  99,0.99668,   7.8310,1.10000,0.90000,1.10000,0.90000
  2104,'            ',  22.0000,1,  99,  99,  99,1.01289,   7.8272,1.10000,0.90000,1.10000,0.90000
  2105,'            ',  22.0000,1,  99,  99,  99,0.99535,   2.5915,1.10000,0.90000,1.10000,0.90000
  2111,'            ',  22.0000,1,  99,  99,  99,1.00917,  -1.1513,1.10000,0.90000,1.10000,0.90000
  2112,'            ',  22.0000,1,  99,  99,  99,1.00917,  -1.1513,1.10000,0.90000,1.10000,0.90000
  2113,'            ',  22.0000,1,  99,  99,  99,1.00917,  -1.1513,1.10000,0.90000,1.10000,0.90000
  2114,'            ',  22.0000,1,  99,  99,  99,1.00917,  -1.1513,1.10000,0.90000,1.10000,0.90000
  2121,'            ',  22.0000,1,  99,  99,  99,1.03049,   8.4732,1.10000,0.90000,1.10000,0.90000
  2122,'            ',  22.0000,1,  99,  99,  99,1.03073,   8.5099,1.10000,0.90000,1.10000,0.90000
  2123,'            ',  22.0000,1,  99,  99,  99,1.03090,   8.5298,1.10000,0.90000,1.10000,0.90000
  2124,'            ',  22.0000,4,  99,  99,  99,1.00000,   0.0000,1.10000,0.90000,1.10000,0.90000
  2141,'            ',  22.0000,1,  99,  99,  99,1.00514,   1.2611,1.10000,0.90000,1.10000,0.90000
  2142,'            ',  22.0000,1,  99,  99,  99,1.00514,   1.2611,1.10000,0.90000,1.10000,0.90000
  2143,'            ',  22.0000,1,  99,  99,  99,1.00514,   1.2611,1.10000,0.90000,1.10000,0.90000
  2144,'            ',  22.0000,1,  99,  99,  99,1.00514,   1.2611,1.10000,0.90000,1.10000,0.90000
  2145,'            ',  22.0000,1,  99,  99,  99,1.00490,   1.2736,1.10000,0.90000,1.10000,0.90000
  2146,'            ',  22.0000,1,  99,  99,  99,1.07780,  12.3509,1.10000,0.90000,1.10000,0.90000
  2161,'            ',  22.0000,1,  99,  99,  99,0.99078,   1.8503,1.10000,0.90000,1.10000,0.90000
  2162,'            ',  22.0000,1,  99,  99,  99,0.99078,   1.8503,1.10000,0.90000,1.10000,0.90000
  2163,'            ',  22.0000,1,  99,  99,  99,0.99078,   1.8503,1.10000,0.90000,1.10000,0.90000
  2164,'            ',  22.0000,1,  99,  99,  99,0.98947,   1.7400,1.10000,0.90000,1.10000,0.90000
  2171,'            ',  22.0000,1,  99,  99,  99,1.00956,  -0.6805,1.10000,0.90000,1.10000,0.90000
  2172,'            ',  22.0000,1,  99,  99,  99,1.00956,  -0.6805,1.10000,0.90000,1.10000,0.90000
  2173,'            ',  22.0000,1,  99,  99,  99,1.00956,  -0.6805,1.10000,0.90000,1.10000,0.90000
  2174,'            ',  22.0000,1,  99,  99,  99,1.05982,   8.3103,1.10000,0.90000,1.10000,0.90000
  2181,'            ',  22.0000,1,  99,  99,  99,0.99805,   1.8000,1.10000,0.90000,1.10000,0.90000
  2182,'            ',  22.0000,1,  99,  99,  99,1.02255,   8.7845,1.10000,0.90000,1.10000,0.90000
  2183,'            ',  22.0000,1,  99,  99,  99,0.99805,   1.8000,1.10000,0.90000,1.10000,0.90000
  2184,'            ',  22.0000,1,  99,  99,  99,0.99805,   1.8000,1.10000,0.90000,1.10000,0.90000
  2201,'            ',  22.0000,1,  99,  99,  99,1.02298,   9.0225,1.10000,0.90000,1.10000,0.90000
  2202,'            ',  22.0000,1,  99,  99,  99,1.02298,   9.0225,1.10000,0.90000,1.10000,0.90000
  2203,'            ',  22.0000,1,  99,  99,  99,1.02298,   9.0225,1.10000,0.90000,1.10000,0.90000
  2211,'            ',  22.0000,1,  99,  99,  99,1.00242,   5.6014,1.10000,0.90000,1.10000,0.90000
  2212,'            ',  22.0000,1,  99,  99,  99,1.00242,   5.6014,1.10000,0.90000,1.10000,0.90000
  2213,'            ',  22.0000,1,  99,  99,  99,1.00242,   5.6014,1.10000,0.90000,1.10000,0.90000
  2214,'            ',  22.0000,1,  99,  99,  99,1.04323,  11.9668,1.10000,0.90000,1.10000,0.90000
  2221,'            ',  22.0000,1,  99,  99,  99,1.05802,   7.3220,1.10000,0.90000,1.10000,0.90000
  2222,'            ',  22.0000,1,  99,  99,  99,1.05802,   7.3220,1.10000,0.90000,1.10000,0.90000
  2223,'            ',  22.0000,1,  99,  99,  99,1.05802,   7.3220,1.10000,0.90000,1.10000,0.90000
  2224,'            ',  22.0000,1,  99,  99,  99,1.05961,   7.5190,1.10000,0.90000,1.10000,0.90000
  2225,'            ',  22.0000,1,  99,  99,  99,1.05777,   7.3023,1.10000,0.90000,1.10000,0.90000
  2251,'            ',  22.0000,1,  99,  99,  99,0.98874,  17.5417,1.10000,0.90000,1.10000,0.90000
  2252,'            ',  22.0000,1,  99,  99,  99,0.98871,  17.5432,1.10000,0.90000,1.10000,0.90000
  2253,'            ',  22.0000,1,  99,  99,  99,0.98878,  17.5442,1.10000,0.90000,1.10000,0.90000
  2261,'            ',  22.0000,1,  99,  99,  99,1.02795,   9.0551,1.10000,0.90000,1.10000,0.90000
  2262,'            ',  22.0000,1,  99,  99,  99,1.02818,   9.0897,1.10000,0.90000,1.10000,0.90000
  2263,'            ',  22.0000,1,  99,  99,  99,1.02825,   9.0943,1.10000,0.90000,1.10000,0.90000
  2301,'            ',  22.0000,1,  99,  99,  99,1.01304,   7.9460,1.10000,0.90000,1.10000,0.90000
  2302,'            ',  22.0000,1,  99,  99,  99,1.01304,   7.9477,1.10000,0.90000,1.10000,0.90000
  2303,'            ',  22.0000,1,  99,  99,  99,1.01301,   7.9345,1.10000,0.90000,1.10000,0.90000
  2595,'TJGSM1A     ', 275.0000,1,   1,   7,  26,1.02608,   5.4497,1.10000,0.90000,1.10000,0.90000
  2597,'TJGSM1B     ', 275.0000,1,   1,   7,  26,1.02608,   5.4497,1.10000,0.90000,1.10000,0.90000
  3021,'            ',  22.0000,1,  99,  99,  99,1.02210,   9.1117,1.10000,0.90000,1.10000,0.90000
  3022,'            ',  22.0000,1,  99,  99,  99,1.02202,   9.0874,1.10000,0.90000,1.10000,0.90000
  3023,'            ',  22.0000,1,  99,  99,  99,1.02206,   9.0978,1.10000,0.90000,1.10000,0.90000
  3024,'            ',  22.0000,1,  99,  99,  99,1.02213,   9.1052,1.10000,0.90000,1.10000,0.90000
  3031,'            ',  22.0000,1,  99,  99,  99,1.02198,   9.1379,1.10000,0.90000,1.10000,0.90000
  3032,'            ',  22.0000,1,  99,  99,  99,1.02198,   9.1379,1.10000,0.90000,1.10000,0.90000
  3034,'            ',  22.0000,1,  99,  99,  99,1.02196,   9.1381,1.10000,0.90000,1.10000,0.90000
  3115,'            ',  22.0000,1,  99,  99,  99,1.05934,   8.2967,1.10000,0.90000,1.10000,0.90000
  3131,'            ',  22.0000,1,  99,  99,  99,1.08511,   8.6293,1.10000,0.90000,1.10000,0.90000
  3132,'            ',  22.0000,1,  99,  99,  99,0.99220,  -0.3510,1.10000,0.90000,1.10000,0.90000
  3133,'            ',  22.0000,1,  99,  99,  99,1.08510,   8.6298,1.10000,0.90000,1.10000,0.90000
  3134,'            ',  22.0000,4,  99,  99,  99,1.00000,   0.0000,1.10000,0.90000,1.10000,0.90000
  3184,'PGLAGTB1    ', 275.0000,1,   1,   8,  28,1.03123,   5.4970,1.10000,0.90000,1.10000,0.90000
  3185,'PGLAGTB2    ', 275.0000,1,   1,   8,  28,1.03123,   5.4969,1.10000,0.90000,1.10000,0.90000
  3186,'PGLASTB3    ', 275.0000,1,   1,   8,  28,1.03123,   5.4969,1.10000,0.90000,1.10000,0.90000
  3211,'            ',  22.0000,1,  99,  99,  99,0.98568,   8.1969,1.10000,0.90000,1.10000,0.90000
  3212,'            ',  22.0000,1,  99,  99,  99,0.98568,   8.1969,1.10000,0.90000,1.10000,0.90000
  3217,'            ',  22.0000,1,  99,  99,  99,0.99842,   9.4367,1.10000,0.90000,1.10000,0.90000
  3218,'            ',  22.0000,1,  99,  99,  99,0.99842,   9.4367,1.10000,0.90000,1.10000,0.90000
  4051,'            ',  66.0000,1,  99,  99,  99,1.00819,   5.2252,1.10000,0.90000,1.10000,0.90000
  4052,'            ',  66.0000,1,  99,  99,  99,1.00819,   5.2252,1.10000,0.90000,1.10000,0.90000
  4053,'            ',  66.0000,1,  99,  99,  99,1.00819,   5.2252,1.10000,0.90000,1.10000,0.90000
  4054,'            ',  66.0000,1,  99,  99,  99,1.01119,   5.8157,1.10000,0.90000,1.10000,0.90000
  4081,'            ',  66.0000,1,  99,  99,  99,1.01670,   7.2366,1.10000,0.90000,1.10000,0.90000
  4082,'            ',  66.0000,1,  99,  99,  99,1.01684,   7.2519,1.10000,0.90000,1.10000,0.90000
  4083,'            ',  66.0000,1,  99,  99,  99,1.01672,   7.2393,1.10000,0.90000,1.10000,0.90000
  4084,'            ',  66.0000,1,  99,  99,  99,1.01675,   7.2509,1.10000,0.90000,1.10000,0.90000
  4101,'            ',  66.0000,1,  99,  99,  99,1.00205,   5.9090,1.10000,0.90000,1.10000,0.90000
  4102,'            ',  66.0000,1,  99,  99,  99,1.00205,   5.9090,1.10000,0.90000,1.10000,0.90000
  4103,'            ',  66.0000,1,  99,  99,  99,1.00205,   5.9090,1.10000,0.90000,1.10000,0.90000
  4104,'            ',  66.0000,1,  99,  99,  99,0.99907,   6.3959,1.10000,0.90000,1.10000,0.90000
  4131,'            ',  66.0000,1,  99,  99,  99,0.99785,   6.9000,1.10000,0.90000,1.10000,0.90000
  4132,'            ',  66.0000,1,  99,  99,  99,0.99785,   6.9000,1.10000,0.90000,1.10000,0.90000
  4161,'            ',  66.0000,1,  99,  99,  99,1.00710,  10.0101,1.10000,0.90000,1.10000,0.90000
  4162,'            ',  66.0000,1,  99,  99,  99,1.00710,  10.0101,1.10000,0.90000,1.10000,0.90000
  4163,'            ',  66.0000,1,  99,  99,  99,1.00710,  10.0101,1.10000,0.90000,1.10000,0.90000
  4164,'            ',  66.0000,1,  99,  99,  99,1.01259,  10.2389,1.10000,0.90000,1.10000,0.90000
  4301,'            ',  66.0000,1,  99,  99,  99,0.99443,   5.9934,1.10000,0.90000,1.10000,0.90000
  4302,'            ',  66.0000,1,  99,  99,  99,0.99425,   5.9252,1.10000,0.90000,1.10000,0.90000
  4303,'            ',  66.0000,1,  99,  99,  99,0.99463,   6.0612,1.10000,0.90000,1.10000,0.90000
  4304,'            ',  66.0000,1,  99,  99,  99,0.99443,   5.9855,1.10000,0.90000,1.10000,0.90000
  4321,'            ',  66.0000,1,  99,  99,  99,1.01136,  20.5434,1.10000,0.90000,1.10000,0.90000
  4322,'            ',  66.0000,1,  99,  99,  99,1.01134,  20.5597,1.10000,0.90000,1.10000,0.90000
  4323,'            ',  66.0000,1,  99,  99,  99,1.01136,  20.5496,1.10000,0.90000,1.10000,0.90000
  4324,'            ',  66.0000,1,  99,  99,  99,1.01317,  19.4943,1.10000,0.90000,1.10000,0.90000
  5438,'PLTG230     ', 230.0000,1,   1,   9,   1,1.01591,   8.3365,1.10000,0.90000,1.10000,0.90000
  6075,'            ',  22.0000,1,  99,  99,  99,0.98836,   0.8594,1.10000,0.90000,1.10000,0.90000
  7076,'            ',  22.0000,1,  99,  99,  99,1.01820,   7.6358,1.10000,0.90000,1.10000,0.90000
  7077,'            ',  22.0000,1,  99,  99,  99,1.01818,   7.6261,1.10000,0.90000,1.10000,0.90000
  8012,'            ',  66.0000,1,  99,  99,  99,0.98682,   0.7925,1.10000,0.90000,1.10000,0.90000
  8014,'            ',  66.0000,1,  99,  99,  99,0.98676,   0.8119,1.10000,0.90000,1.10000,0.90000
  8031,'            ',  66.0000,1,  99,  99,  99,1.00304,   0.8169,1.10000,0.90000,1.10000,0.90000
  8032,'            ',  66.0000,1,  99,  99,  99,1.00439,   1.0061,1.10000,0.90000,1.10000,0.90000
  8033,'            ',  66.0000,1,  99,  99,  99,1.00829,  -0.3938,1.10000,0.90000,1.10000,0.90000
  8034,'            ',  66.0000,1,  99,  99,  99,1.00829,  -0.3938,1.10000,0.90000,1.10000,0.90000
  8051,'            ',  66.0000,4,  99,  99,  99,1.00000,   0.0000,1.10000,0.90000,1.10000,0.90000
  8053,'            ',  66.0000,4,  99,  99,  99,1.00000,   0.0000,1.10000,0.90000,1.10000,0.90000
  8054,'            ',  66.0000,4,  99,  99,  99,1.00000,   0.0000,1.10000,0.90000,1.10000,0.90000
  8111,'            ',  66.0000,1,  99,  99,  99,1.00934,  -0.6643,1.10000,0.90000,1.10000,0.90000
  8171,'            ',  66.0000,1,  99,  99,  99,1.00941,  -0.2666,1.10000,0.90000,1.10000,0.90000
  8301,'            ',  66.0000,1,  99,  99,  99,0.98885,   0.5413,1.10000,0.90000,1.10000,0.90000
  8302,'            ',  66.0000,1,  99,  99,  99,0.98670,   0.3752,1.10000,0.90000,1.10000,0.90000
  8303,'            ',  66.0000,1,  99,  99,  99,0.99307,   1.3288,1.10000,0.90000,1.10000,0.90000
  8304,'            ',  66.0000,1,  99,  99,  99,0.99307,   1.3288,1.10000,0.90000,1.10000,0.90000
  9053,'            ',  66.0000,1,  99,  99,  99,0.99648,   2.8344,1.10000,0.90000,1.10000,0.90000
  9054,'            ',  66.0000,1,  99,  99,  99,0.99648,   2.8333,1.10000,0.90000,1.10000,0.90000
  9300,'NURGT1A     ',  11.0000,2,   1,   2,  37,1.02473, -10.0720,1.10000,0.90000,1.10000,0.90000
  9301,'NURGT1B     ',  11.0000,2,   1,   2,  37,1.02473, -10.0720,1.10000,0.90000,1.10000,0.90000
  9302,'NURST1C     ',  11.0000,2,   1,   2,  37,1.02473, -10.0720,1.10000,0.90000,1.10000,0.90000
  9303,'NURGT2A     ',  11.0000,2,   1,   2,  37,1.02473, -10.0720,1.10000,0.90000,1.10000,0.90000
  9304,'NURGT2B     ',  11.0000,2,   1,   2,  37,1.02473, -10.0720,1.10000,0.90000,1.10000,0.90000
  9305,'NURST2C     ',  11.0000,2,   1,   2,  37,1.02473, -10.0720,1.10000,0.90000,1.10000,0.90000
 10101,'            ',  66.0000,1,  99,  99,  99,0.98800,   0.9131,1.10000,0.90000,1.10000,0.90000
 10102,'            ',  66.0000,1,  99,  99,  99,0.97632,  -1.0609,1.10000,0.90000,1.10000,0.90000
 10104,'            ',  66.0000,1,  99,  99,  99,0.97788,  -0.9961,1.10000,0.90000,1.10000,0.90000
 10107,'            ',  66.0000,1,  99,  99,  99,0.98779,   0.7427,1.10000,0.90000,1.10000,0.90000
 10109,'            ',  66.0000,1,  99,  99,  99,0.97439,  -1.1852,1.10000,0.90000,1.10000,0.90000
 10111,'            ',  66.0000,1,  99,  99,  99,0.97522,  -1.1225,1.10000,0.90000,1.10000,0.90000
 10112,'            ',  66.0000,1,  99,  99,  99,0.98653,   0.5549,1.10000,0.90000,1.10000,0.90000
 10201,'            ',  66.0000,1,  99,  99,  99,1.00565,   1.8892,1.10000,0.90000,1.10000,0.90000
 10202,'            ',  66.0000,1,  99,  99,  99,0.99940,   1.3224,1.10000,0.90000,1.10000,0.90000
 10204,'            ',  66.0000,1,  99,  99,  99,1.00437,   1.4416,1.10000,0.90000,1.10000,0.90000
 10205,'            ',  66.0000,1,  99,  99,  99,1.00272,   1.4227,1.10000,0.90000,1.10000,0.90000
 10206,'            ',  66.0000,1,  99,  99,  99,1.00268,   1.4147,1.10000,0.90000,1.10000,0.90000
 10209,'            ',  66.0000,1,  99,  99,  99,1.00446,   1.5203,1.10000,0.90000,1.10000,0.90000
 10210,'            ',  66.0000,1,  99,  99,  99,1.00483,   1.7110,1.10000,0.90000,1.10000,0.90000
 10212,'            ',  66.0000,1,  99,  99,  99,1.00281,   1.4670,1.10000,0.90000,1.10000,0.90000
 10213,'            ',  66.0000,1,  99,  99,  99,1.00351,   1.5658,1.10000,0.90000,1.10000,0.90000
 10214,'            ',  66.0000,1,  99,  99,  99,1.00281,   1.4670,1.10000,0.90000,1.10000,0.90000
 10301,'            ',  66.0000,1,  99,  99,  99,1.00569,   1.1422,1.10000,0.90000,1.10000,0.90000
 10302,'            ',  66.0000,1,  99,  99,  99,1.00578,   1.1418,1.10000,0.90000,1.10000,0.90000
 10303,'            ',  66.0000,1,  99,  99,  99,1.00485,   1.0614,1.10000,0.90000,1.10000,0.90000
 10307,'            ',  66.0000,1,  99,  99,  99,1.00438,   0.9669,1.10000,0.90000,1.10000,0.90000
 10308,'            ',  66.0000,1,  99,  99,  99,1.00571,   1.1142,1.10000,0.90000,1.10000,0.90000
 10310,'            ',  66.0000,1,  99,  99,  99,1.00381,   0.9116,1.10000,0.90000,1.10000,0.90000
 10316,'            ',  66.0000,1,  99,  99,  99,1.00358,   0.8879,1.10000,0.90000,1.10000,0.90000
 10317,'            ',  66.0000,1,  99,  99,  99,1.00509,   0.9708,1.10000,0.90000,1.10000,0.90000
 10318,'            ',  66.0000,1,  99,  99,  99,1.00521,   0.9977,1.10000,0.90000,1.10000,0.90000
 10319,'            ',  66.0000,1,  99,  99,  99,1.00521,   0.9974,1.10000,0.90000,1.10000,0.90000
 10501,'            ',  66.0000,1,  99,  99,  99,0.99470,  -0.8993,1.10000,0.90000,1.10000,0.90000
 10502,'            ',  66.0000,1,  99,  99,  99,0.99275,  -1.2029,1.10000,0.90000,1.10000,0.90000
 10504,'            ',  66.0000,1,  99,  99,  99,0.99349,  -1.1012,1.10000,0.90000,1.10000,0.90000
 10505,'            ',  66.0000,1,  99,  99,  99,0.99371,  -1.0965,1.10000,0.90000,1.10000,0.90000
 10510,'            ',  66.0000,1,  99,  99,  99,0.99310,  -1.1166,1.10000,0.90000,1.10000,0.90000
 10512,'            ',  66.0000,1,  99,  99,  99,0.99212,  -1.2546,1.10000,0.90000,1.10000,0.90000
 10513,'            ',  66.0000,1,  99,  99,  99,0.99397,  -1.0461,1.10000,0.90000,1.10000,0.90000
 10601,'            ',  66.0000,1,  99,  99,  99,0.99935,   0.5566,1.10000,0.90000,1.10000,0.90000
 10602,'            ',  66.0000,1,  99,  99,  99,0.99790,   0.2014,1.10000,0.90000,1.10000,0.90000
 10605,'            ',  66.0000,1,  99,  99,  99,0.99743,   0.2442,1.10000,0.90000,1.10000,0.90000
 10606,'            ',  66.0000,1,  99,  99,  99,0.99739,   0.2247,1.10000,0.90000,1.10000,0.90000
 10608,'            ',  66.0000,1,  99,  99,  99,0.99895,   0.4502,1.10000,0.90000,1.10000,0.90000
 10609,'            ',  66.0000,1,  99,  99,  99,0.99807,   0.3212,1.10000,0.90000,1.10000,0.90000
 10610,'            ',  66.0000,1,  99,  99,  99,0.99466,   0.0724,1.10000,0.90000,1.10000,0.90000
 10611,'            ',  66.0000,1,  99,  99,  99,0.99472,   0.1385,1.10000,0.90000,1.10000,0.90000
 10701,'            ',  66.0000,1,  99,  99,  99,1.00510,   5.1091,1.10000,0.90000,1.10000,0.90000
 10703,'            ',  66.0000,1,  99,  99,  99,1.00457,   5.0140,1.10000,0.90000,1.10000,0.90000
 10706,'            ',  66.0000,1,  99,  99,  99,1.00433,   4.9127,1.10000,0.90000,1.10000,0.90000
...
0 / END OF BUS DATA, BEGIN LOAD DATA
@!   I,'ID',STAT,AREA,ZONE,      PL,        QL,        IP,        IQ,        YP,        YQ, OWNER,SCALE,INTRPT,  DGENP,     DGENQ, DGENF
  1498,'1 ',   1,   3,  14,     0.000,     0.000,     0.000,     0.000,     0.000,     0.000,   5,    1,  0,     0.000,     0.000,   0
  1962,'F1',   1,   1,   2,     0.000,     0.000,     0.000,     0.000,     0.000,     0.000, 100,    1,  0,     0.000,     0.000,   0
  1962,'F2',   1,   1,   2,     0.000,     0.000,     0.000,     0.000,     0.000,     0.000, 100,    1,  0,     0.000,     0.000,   0
  1962,'F3',   1,   1,   2,     0.000,     0.000,     0.000,     0.000,     0.000,     0.000, 100,    1,  0,     0.000,     0.000,   0
  1962,'F4',   1,   1,   2,     0.000,     0.000,     0.000,     0.000,     0.000,     0.000, 100,    1,  0,     0.000,     0.000,   0
  8012,'1 ',   1,  99,  99,    26.210,    11.750,     0.000,     0.000,     0.000,     0.000,  99,    1,  0,     0.000,     0.000,   0
  8012,'3 ',   0,  99,  99,    -0.064,     0.000,     0.000,     0.000,     0.000,     0.000,  99,    1,  0,     0.000,     0.000,   0
  8014,'1 ',   1,  99,  99,    26.210,    11.750,     0.000,     0.000,     0.000,     0.000,  99,    1,  0,     0.000,     0.000,   0
  8014,'3 ',   0,  99,  99,    -0.064,     0.000,     0.000,     0.000,     0.000,     0.000,  99,    1,  0,     0.000,     0.000,   0
  8031,'1 ',   1,  99,  99,    14.499,     5.270,     0.000,     0.000,     0.000,     0.000,  99,    1,  0,     0.000,     0.000,   0
  8031,'3 ',   0,  99,  99,    -0.158,     0.000,     0.000,     0.000,     0.000,     0.000,  99,    1,  0,     0.000,     0.000,   0
  8032,'1 ',   1,  99,  99,    14.499,     5.270,     0.000,     0.000,     0.000,     0.000,  99,    1,  0,     0.000,     0.000,   0
  8032,'3 ',   0,  99,  99,    -0.158,     0.000,     0.000,     0.000,     0.000,     0.000,  99,    1,  0,     0.000,     0.000,   0
  8033,'1 ',   1,  99,  99,     7.000,     3.200,     0.000,     0.000,     0.000,     0.000,  99,    1,  0,     0.000,     0.000,   0
  8033,'3 ',   0,  99,  99,    -0.030,     0.000,     0.000,     0.000,     0.000,     0.000,  99,    1,  0,     0.000,     0.000,   0
  8034,'1 ',   1,  99,  99,     7.000,     3.200,     0.000,     0.000,     0.000,     0.000,  99,    1,  0,     0.000,     0.000,   0
  8034,'3 ',   0,  99,  99,    -0.030,     0.000,     0.000,     0.000,     0.000,     0.000,  99,    1,  0,     0.000,     0.000,   0
  8051,'1 ',   0,  99,  99,    10.822,     1.658,     0.000,     0.000,     0.000,     0.000,  99,    1,  0,     0.000,     0.000,   0
  8051,'3 ',   0,  99,  99,    -0.050,     0.000,     0.000,     0.000,     0.000,     0.000,  99,    1,  0,     0.000,     0.000,   0
  8053,'1 ',   0,  99,  99,     8.525,     1.775,     0.000,     0.000,     0.000,     0.000,  99,    1,  0,     0.000,     0.000,   0
  8054,'1 ',   0,  99,  99,     8.525,     1.775,     0.000,     0.000,     0.000,     0.000,  99,    1,  0,     0.000,     0.000,   0
  8111,'1 ',   1,  99,  99,    23.816,     6.625,     0.000,     0.000,     0.000,     0.000,  99,    1,  0,     0.000,     0.000,   0
  8111,'3 ',   0,  99,  99,    -0.053,     0.000,     0.000,     0.000,     0.000,     0.000,  99,    1,  0,     0.000,     0.000,   0
  8171,'1 ',   1,  99,  99,    24.532,     7.436,     0.000,     0.000,     0.000,     0.000,  99,    1,  0,     0.000,     0.000,   0
  8171,'3 ',   0,  99,  99,    -0.079,     0.000,     0.000,     0.000,     0.000,     0.000,  99,    1,  0,     0.000,     0.000,   0
  8301,'1 ',   1,  99,  99,    28.681,     7.422,     0.000,     0.000,     0.000,     0.000,  99,    1,  0,     0.000,     0.000,   0
  8301,'3 ',   0,  99,  99,    -0.106,     0.000,     0.000,     0.000,     0.000,     0.000,  99,    1,  0,     0.000,     0.000,   0
  8302,'1 ',   1,  99,  99,    28.681,     7.422,     0.000,     0.000,     0.000,     0.000,  99,    1,  0,     0.000,     0.000,   0
  8302,'3 ',   0,  99,  99,    -0.106,     0.000,     0.000,     0.000,     0.000,     0.000,  99,    1,  0,     0.000,     0.000,   0
  8303,'1 ',   1,  99,  99,     9.587,     2.218,     0.000,     0.000,     0.000,     0.000,  99,    1,  0,     0.000,     0.000,   0
  8304,'1 ',   1,  99,  99,     9.587,     2.218,     0.000,     0.000,     0.000,     0.000,  99,    1,  0,     0.000,     0.000,   0
  9053,'2 ',   1,  99,  99,     8.525,     1.775,     0.000,     0.000,     0.000,     0.000,  99,    1,  0,     0.000,     0.000,   0
  9054,'2 ',   1,  99,  99,     8.525,     1.775,     0.000,     0.000,     0.000,     0.000,  99,    1,  0,     0.000,     0.000,   0
  9300,'X1',   0,   1,   2,     0.000,     0.000,     0.000,     0.000,     0.000,     0.000,  37,    1,  0,     0.000,     0.000,   0
  9301,'X1',   0,   1,   2,     0.000,     0.000,     0.000,     0.000,     0.000,     0.000,  37,    1,  0,     0.000,     0.000,   0
  9302,'X1',   0,   1,   2,     0.000,     0.000,     0.000,     0.000,     0.000,     0.000,  37,    1,  0,     0.000,     0.000,   0
  9303,'X1',   0,   1,   2,     0.000,     0.000,     0.000,     0.000,     0.000,     0.000,  37,    1,  0,     0.000,     0.000,   0
  9304,'X1',   0,   1,   2,     0.000,     0.000,     0.000,     0.000,     0.000,     0.000,  37,    1,  0,     0.000,     0.000,   0
  9305,'X1',   0,   1,   2,     0.000,     0.000,     0.000,     0.000,     0.000,     0.000,  37,    1,  0,     0.000,     0.000,   0
 10102,'1 ',   1,  99,  99,   124.905,    21.702,     0.000,     0.000,     0.000,     0.000,  99,    1,  0,     0.000,     0.000,   0
 10102,'3 ',   0,  99,  99,    -0.919,     0.000,     0.000,     0.000,     0.000,     0.000,  99,    1,  0,     0.000,     0.000,   0
 10104,'1 ',   1,  99,  99,    46.889,     6.597,     0.000,     0.000,     0.000,     0.000,  99,    1,  0,     0.000,     0.000,   0
 10104,'3 ',   0,  99,  99,    -0.460,     0.000,     0.000,     0.000,     0.000,     0.000,  99,    1,  0,     0.000,     0.000,   0
 10107,'1 ',   1,  99,  99,    52.420,    23.500,     0.000,     0.000,     0.000,     0.000,  99,    1,  0,     0.000,     0.000,   0
 10107,'3 ',   0,  99,  99,    -0.128,     0.000,     0.000,     0.000,     0.000,     0.000,  99,    1,  0,     0.000,     0.000,   0
 10109,'1 ',   1,  99,  99,    70.980,    40.762,     0.000,     0.000,     0.000,     0.000,  99,    1,  0,     0.000,     0.000,   0
 10111,'1 ',   1,  99,  99,    54.094,     9.932,     0.000,     0.000,     0.000,     0.000,  99,    1,  0,     0.000,     0.000,   0
 10111,'3 ',   0,  99,  99,    -0.919,     0.000,     0.000,     0.000,     0.000,     0.000,  99,    1,  0,     0.000,     0.000,   0
 10112,'1 ',   1,  99,  99,    32.980,     5.184,     0.000,     0.000,     0.000,     0.000,  99,    1,  0,     0.000,     0.000,   0
 10112,'3 ',   0,  99,  99,    -0.460,     0.000,     0.000,     0.000,     0.000,     0.000,  99,    1,  0,     0.000,     0.000,   0
 10201,'1 ',   1,  99,  99,    20.501,     2.500,     0.000,     0.000,     0.000,     0.000,  99,    1,  0,     0.000,     0.000,   0
 10201,'3 ',   0,  99,  99,    -0.212,     0.000,     0.000,     0.000,     0.000,     0.000,  99,    1,  0,     0.000,     0.000,   0
 10202,'1 ',   1,  99,  99,    55.036,    14.462,     0.000,     0.000,     0.000,     0.000,  99,    1,  0,     0.000,     0.000,   0
 10202,'3 ',   0,  99,  99,    -0.316,     0.000,     0.000,     0.000,     0.000,     0.000,  99,    1,  0,     0.000,     0.000,   0
 10204,'1 ',   1,  99,  99,    35.534,     5.596,     0.000,     0.000,     0.000,     0.000,  99,    1,  0,     0.000,     0.000,   0
 10204,'3 ',   0,  99,  99,    -0.212,     0.000,     0.000,     0.000,     0.000,     0.000,  99,    1,  0,     0.000,     0.000,   0
 10205,'1 ',   1,  99,  99,    31.701,    10.039,     0.000,     0.000,     0.000,     0.000,  99,    1,  0,     0.000,     0.000,   0
 10205,'3 ',   0,  99,  99,    -0.316,     0.000,     0.000,     0.000,     0.000,     0.000,  99,    1,  0,     0.000,     0.000,   0
 10206,'1 ',   1,  99,  99,    32.256,     4.999,     0.000,     0.000,     0.000,     0.000,  99,    1,  0,     0.000,     0.000,   0
 10209,'1 ',   1,  99,  99,    76.869,     9.129,     0.000,     0.000,     0.000,     0.000,  99,    1,  0,     0.000,     0.000,   0
 10209,'3 ',   0,  99,  99,    -0.212,     0.000,     0.000,     0.000,     0.000,     0.000,  99,    1,  0,     0.000,     0.000,   0
 10210,'1 ',   1,  99,  99,    43.658,     1.021,     0.000,     0.000,     0.000,     0.000,  99,    1,  0,     0.000,     0.000,   0
 10210,'3 ',   0,  99,  99,    -1.252,     0.000,     0.000,     0.000,     0.000,     0.000,  99,    1,  0,     0.000,     0.000,   0
 10212,'1 ',   1,  99,  99,    65.133,    23.393,     0.000,     0.000,     0.000,     0.000,  99,    1,  0,     0.000,     0.000,   0
 10212,'3 ',   0,  99,  99,    -1.252,     0.000,     0.000,     0.000,     0.000,     0.000,  99,    1,  0,     0.000,     0.000,   0
 10213,'1 ',   1,  99,  99,    14.007,     5.031,     0.000,     0.000,     0.000,     0.000,  99,    1,  0,     0.000,     0.000,   0
 10213,'3 ',   0,  99,  99,    -0.122,     0.000,     0.000,     0.000,     0.000,     0.000,  99,    1,  0,     0.000,     0.000,   0
 10214,'1 ',   1,  99,  99,     0.000,     0.000,     0.000,     0.000,     0.000,     0.000,  99,    1,  0,     0.000,     0.000,   0
 10301,'1 ',   1,  99,  99,    87.074,    25.751,     0.000,     0.000,     0.000,     0.000,  99,    1,  0,     0.000,     0.000,   0
 10301,'3 ',   0,  99,  99,    -0.316,     0.000,     0.000,     0.000,     0.000,     0.000,  99,    1,  0,     0.000,     0.000,   0
 10303,'1 ',   1,  99,  99,    67.197,    15.599,     0.000,     0.000,     0.000,     0.000,  99,    1,  0,     0.000,     0.000,   0
 10303,'3 ',   0,  99,  99,    -0.316,     0.000,     0.000,     0.000,     0.000,     0.000,  99,    1,  0,     0.000,     0.000,   0
 10307,'1 ',   1,  99,  99,    43.404,     9.244,     0.000,     0.000,     0.000,     0.000,  99,    1,  0,     0.000,     0.000,   0
 10307,'3 ',   0,  99,  99,    -0.316,     0.000,     0.000,     0.000,     0.000,     0.000,  99,    1,  0,     0.000,     0.000,   0
 10308,'1 ',   1,  99,  99,     7.623,     1.196,     0.000,     0.000,     0.000,     0.000,  99,    1,  0,     0.000,     0.000,   0
 10308,'3 ',   0,  99,  99,    -0.316,     0.000,     0.000,     0.000,     0.000,     0.000,  99,    1,  0,     0.000,     0.000,   0
 10310,'1 ',   1,  99,  99,    39.960,    14.335,     0.000,     0.000,     0.000,     0.000,  99,    1,  0,     0.000,     0.000,   0
 10310,'3 ',   0,  99,  99,    -0.316,     0.000,     0.000,     0.000,     0.000,     0.000,  99,    1,  0,     0.000,     0.000,   0
 10316,'1 ',   1,  99,  99,    25.656,    10.749,     0.000,     0.000,     0.000,     0.000,  99,    1,  0,     0.000,     0.000,   0
 10317,'1 ',   1,  99,  99,    11.281,     2.206,     0.000,     0.000,     0.000,     0.000,  99,    1,  0,     0.000,     0.000,   0
 10318,'1 ',   1,  99,  99,    36.139,     7.066,     0.000,     0.000,     0.000,     0.000,  99,    1,  0,     0.000,     0.000,   0
 10318,'3 ',   0,  99,  99,    -0.316,     0.000,     0.000,     0.000,     0.000,     0.000,  99,    1,  0,     0.000,     0.000,   0
 10319,'1 ',   1,  99,  99,     0.425,     0.083,     0.000,     0.000,     0.000,     0.000,  99,    1,  0,     0.000,     0.000,   0
 10501,'1 ',   1,  99,  99,    53.101,    14.660,     0.000,     0.000,     0.000,     0.000,  99,    1,  0,     0.000,     0.000,   0
 10501,'3 ',   0,  99,  99,    -0.567,     0.000,     0.000,     0.000,     0.000,     0.000,  99,    1,  0,     0.000,     0.000,   0
 10502,'1 ',   1,  99,  99,    33.004,     4.436,     0.000,     0.000,     0.000,     0.000,  99,    1,  0,     0.000,     0.000,   0
 10502,'3 ',   0,  99,  99,    -0.212,     0.000,     0.000,     0.000,     0.000,     0.000,  99,    1,  0,     0.000,     0.000,   0
 10504,'1 ',   1,  99,  99,    52.008,    11.201,     0.000,     0.000,     0.000,     0.000,  99,    1,  0,     0.000,     0.000,   0
 10504,'3 ',   0,  99,  99,    -0.212,     0.000,     0.000,     0.000,     0.000,     0.000,  99,    1,  0,     0.000,     0.000,   0
 10505,'1 ',   1,  99,  99,    43.700,     6.700,     0.000,     0.000,     0.000,     0.000,  99,    1,  0,     0.000,     0.000,   0
 10505,'2 ',   0,  99,  99,    17.050,     3.550,     0.000,     0.000,     0.000,     0.000,  99,    1,  0,     0.000,     0.000,   0
 10505,'3 ',   0,  99,  99,    -0.382,     0.000,     0.000,     0.000,     0.000,     0.000,  99,    1,  0,     0.000,     0.000,   0
 10510,'1 ',   1,  99,  99,    32.108,     5.163,     0.000,     0.000,     0.000,     0.000,  99,    1,  0,     0.000,     0.000,   0
 10510,'2 ',   1,  99,  99,    37.800,    12.214,     0.000,     0.000,     0.000,     0.000,  99,    1,  0,     0.000,     0.000,   0
 10510,'3 ',   0,  99,  99,    -0.382,     0.000,     0.000,     0.000,     0.000,     0.000,  99,    1,  0,     0.000,     0.000,   0
 10512,'1 ',   1,  99,  99,    32.055,    13.281,     0.000,     0.000,     0.000,     0.000,  99,    1,  0,     0.000,     0.000,   0
 10512,'3 ',   0,  99,  99,    -0.382,     0.000,     0.000,     0.000,     0.000,     0.000,  99,    1,  0,     0.000,     0.000,   0
 10513,'1 ',   1,  99,  99,   109.308,    15.051,     0.000,     0.000,     0.000,     0.000,  99,    1,  0,     0.000,     0.000,   0
 10513,'3 ',   0,  99,  99,    -0.382,     0.000,     0.000,     0.000,     0.000,     0.000,  99,    1,  0,     0.000,     0.000,   0
 10601,'1 ',   1,  99,  99,    44.029,     4.586,     0.000,     0.000,     0.000,     0.000,  99,    1,  0,     0.000,     0.000,   0
 10601,'3 ',   0,  99,  99,    -0.629,     0.000,     0.000,     0.000,     0.000,     0.000,  99,    1,  0,     0.000,     0.000,   0
 10602,'1 ',   1,  99,  99,    52.770,     9.948,     0.000,     0.000,     0.000,     0.000,  99,    1,  0,     0.000,     0.000,   0
 10602,'3 ',   0,  99,  99,    -1.252,     0.000,     0.000,     0.000,     0.000,     0.000,  99,    1,  0,     0.000,     0.000,   0
 10605,'1 ',   1,  99,  99,    36.570,    15.149,     0.000,     0.000,     0.000,     0.000,  99,    1,  0,     0.000,     0.000,   0
 10605,'3 ',   0,  99,  99,    -1.252,     0.000,     0.000,     0.000,     0.000,     0.000,  99,    1,  0,     0.000,     0.000,   0
 10606,'1 ',   1,  99,  99,     9.264,     0.209,     0.000,     0.000,     0.000,     0.000,  99,    1,  0,     0.000,     0.000,   0
 10608,'1 ',   1,  99,  99,    49.537,     2.725,     0.000,     0.000,     0.000,     0.000,  99,    1,  0,     0.000,     0.000,   0
 10608,'3 ',   0,  99,  99,    -2.022,     0.000,     0.000,     0.000,     0.000,     0.000,  99,    1,  0,     0.000,     0.000,   0
 10609,'1 ',   1,  99,  99,    30.112,     2.524,     0.000,     0.000,     0.000,     0.000,  99,    1,  0,     0.000,     0.000,   0
 10609,'3 ',   0,  99,  99,    -0.893,     0.000,     0.000,     0.000,     0.000,     0.000,  99,    1,  0,     0.000,     0.000,   0
 10610,'1 ',   1,  99,  99,    20.690,     2.676,     0.000,     0.000,     0.000,     0.000,  99,    1,  0,     0.000,     0.000,   0
 10610,'2 ',   1,  99,  99,    26.362,     6.415,     0.000,     0.000,     0.000,     0.000,  99,    1,  0,     0.000,     0.000,   0
 10610,'3 ',   0,  99,  99,    -0.629,     0.000,     0.000,     0.000,     0.000,     0.000,  99,    1,  0,     0.000,     0.000,   0
 10611,'1 ',   1,  99,  99,    19.896,     4.246,     0.000,     0.000,     0.000,     0.000,  99,    1,  0,     0.000,     0.000,   0
 10611,'3 ',   0,  99,  99,    -0.629,     0.000,     0.000,     0.000,     0.000,     0.000,  99,    1,  0,     0.000,     0.000,   0
 10701,'1 ',   1,  99,  99,    51.315,    21.249,     0.000,     0.000,     0.000,     0.000,  99,    1,  0,     0.000,     0.000,   0
 10701,'3 ',   0,  99,  99,    -0.382,     0.000,     0.000,     0.000,     0.000,     0.000,  99,    1,  0,     0.000,     0.000,   0
 10703,'1 ',   1,  99,  99,    32.218,    13.887,     0.000,     0.000,     0.000,     0.000,  99,    1,  0,     0.000,     0.000,   0
 10703,'3 ',   0,  99,  99,    -0.382,     0.000,     0.000,     0.000,     0.000,     0.000,  99,    1,  0,     0.000,     0.000,   0
 10706,'1 ',   1,  99,  99,    77.364,     6.220,     0.000,     0.000,     0.000,     0.000,  99,    1,  0,     0.000,     0.000,   0
 10706,'3 ',   0,  99,  99,    -0.629,     0.000,     0.000,     0.000,     0.000,     0.000,  99,    1,  0,     0.000,     0.000,   0
 10707,'1 ',   1,  99,  99,    11.016,     8.304,     0.000,     0.000,     0.000,     0.000,  99,    1,  0,     0.000,     0.000,   0
 10712,'1 ',   1,  99,  99,    22.224,     6.482,     0.000,     0.000,     0.000,     0.000,  99,    1,  0,     0.000,     0.000,   0
 10712,'3 ',   0,  99,  99,    -0.382,     0.000,     0.000,     0.000,     0.000,     0.000,  99,    1,  0,     0.000,     0.000,   0
 10713,'1 ',   1,  99,  99,    15.450,     0.000,     0.000,     0.000,     0.000,     0.000,  99,    1,  0,     0.000,     0.000,   0
 10713,'3 ',   0,  99,  99,    -0.414,     0.000,     0.000,     0.000,     0.000,     0.000,  99,    1,  0,     0.000,     0.000,   0
 10714,'1 ',   1,  99,  99,    26.966,    16.712,     0.000,     0.000,     0.000,     0.000,  99,    1,  0,     0.000,     0.000,   0
 10715,'1 ',   0,  99,  99,     0.000,     0.000,     0.000,     0.000,     0.000,     0.000,  99,    1,  0,     0.000,     0.000,   0
 10801,'1 ',   1,  99,  99,    99.240,    34.984,     0.000,     0.000,     0.000,     0.000,  99,    1,  0,     0.000,     0.000,   0
 10801,'3 ',   0,  99,  99,    -0.405,     0.000,     0.000,     0.000,     0.000,     0.000,  99,    1,  0,     0.000,     0.000,   0
 10803,'1 ',   1,  99,  99,    81.600,    21.800,     0.000,     0.000,     0.000,     0.000,  99,    1,  0,     0.000,     0.000,   0
 10803,'3 ',   0,  99,  99,    -0.363,     0.000,     0.000,     0.000,     0.000,     0.000,  99,    1,  0,     0.000,     0.000,   0
 10807,'1 ',   1,  99,  99,    28.724,     6.116,     0.000,     0.000,     0.000,     0.000,  99,    1,  0,     0.000,     0.000,   0
 10807,'2 ',   1,  99,  99,    14.592,     2.418,     0.000,     0.000,     0.000,     0.000,  99,    1,  0,     0.000,     0.000,   0
 10807,'3 ',   0,  99,  99,    -0.316,     0.000,     0.000,     0.000,     0.000,     0.000,  99,    1,  0,     0.000,     0.000,   0
 10808,'1 ',   1,  99,  99,    33.889,     6.300,     0.000,     0.000,     0.000,     0.000,  99,    1,  0,     0.000,     0.000,   0
 10808,'3 ',   0,  99,  99,    -0.316,     0.000,     0.000,     0.000,     0.000,     0.000,  99,    1,  0,     0.000,     0.000,   0
 10810,'1 ',   1,  99,  99,    73.100,    22.200,     0.000,     0.000,     0.000,     0.000,  99,    1,  0,     0.000,     0.000,   0
 10810,'3 ',   0,  99,  99,    -0.613,     0.000,     0.000,     0.000,     0.000,     0.000,  99,    1,  0,     0.000,     0.000,   0
 11001,'1 ',   1,  99,  99,    87.656,    22.986,     0.000,     0.000,     0.000,     0.000,  99,    1,  0,     0.000,     0.000,   0
 11001,'3 ',   0,  99,  99,    -0.382,     0.000,     0.000,     0.000,     0.000,     0.000,  99,    1,  0,     0.000,     0.000,   0
 11011,'1 ',   1,  99,  99,    80.732,    16.520,     0.000,     0.000,     0.000,     0.000,  99,    1,  0,     0.000,     0.000,   0
 11011,'3 ',   0,  99,  99,    -0.316,     0.000,     0.000,     0.000,     0.000,     0.000,  99,    1,  0,     0.000,     0.000,   0
 11015,'1 ',   1,  99,  99,    44.699,    17.345,     0.000,     0.000,     0.000,     0.000,  99,    1,  0,     0.000,     0.000,   0
 11015,'3 ',   0,  99,  99,    -0.382,     0.000,     0.000,     0.000,     0.000,     0.000,  99,    1,  0,     0.000,     0.000,   0
 11101,'1 ',   1,  99,  99,   107.670,    26.673,     0.000,     0.000,     0.000,     0.000,  99,    1,  0,     0.000,     0.000,   0
 11101,'3 ',   0,  99,  99,    -0.212,     0.000,     0.000,     0.000,     0.000,     0.000,  99,    1,  0,     0.000,     0.000,   0
 11102,'1 ',   1,  99,  99,    99.563,    23.536,     0.000,     0.000,     0.000,     0.000,  99,    1,  0,     0.000,     0.000,   0
 11102,'3 ',   0,  99,  99,    -0.212,     0.000,     0.000,     0.000,     0.000,     0.000,  99,    1,  0,     0.000,     0.000,   0
 11103,'1 ',   1,  99,  99,    48.655,    16.801,     0.000,     0.000,     0.000,     0.000,  99,    1,  0,     0.000,     0.000,   0
 11103,'3 ',   0,  99,  99,    -0.316,     0.000,     0.000,     0.000,     0.000,     0.000,  99,    1,  0,     0.000,     0.000,   0
 11104,'1 ',   1,  99,  99,    71.448,    19.874,     0.000,     0.000,     0.000,     0.000,  99,    1,  0,     0.000,     0.000,   0
 11104,'3 ',   0,  99,  99,    -0.159,     0.000,     0.000,     0.000,     0.000,     0.000,  99,    1,  0,     0.000,     0.000,   0
 11105,'1 ',   1,  99,  99,    22.605,     0.786,     0.000,     0.000,     0.000,     0.000,  99,    1,  0,     0.000,     0.000,   0
 11105,'2 ',   1,  99,  99,     7.938,     0.059,     0.000,     0.000,     0.000,     0.000,  99,    1,  0,     0.000,     0.000,   0
 11105,'3 ',   0,  99,  99,    -0.212,     0.000,     0.000,     0.000,     0.000,     0.000,  99,    1,  0,     0.000,     0.000,   0
 11109,'1 ',   1,  99,  99,    38.019,    10.148,     0.000,     0.000,     0.000,     0.000,  99,    1,  0,     0.000,     0.000,   0
 11109,'3 ',   0,  99,  99,    -0.212,     0.000,     0.000,     0.000,     0.000,     0.000,  99,    1,  0,     0.000,     0.000,   0
 11202,'1 ',   1,  99,  99,    44.248,     9.826,     0.000,     0.000,     0.000,     0.000,  99,    1,  0,     0.000,     0.000,   0
 11202,'3 ',   0,  99,  99,    -0.212,     0.000,     0.000,     0.000,     0.000,     0.000,  99,    1,  0,     0.000,     0.000,   0
 11203,'1 ',   1,  99,  99,    39.647,     6.244,     0.000,     0.000,     0.000,     0.000,  99,    1,  0,     0.000,     0.000,   0
 11203,'3 ',   0,  99,  99,    -0.212,     0.000,     0.000,     0.000,     0.000,     0.000,  99,    1,  0,     0.000,     0.000,   0
 11204,'1 ',   1,  99,  99,    17.832,     3.391,     0.000,     0.000,     0.000,     0.000,  99,    1,  0,     0.000,     0.000,   0
 11204,'3 ',   0,  99,  99,    -0.382,     0.000,     0.000,     0.000,     0.000,     0.000,  99,    1,  0,     0.000,     0.000,   0
 11205,'1 ',   1,  99,  99,    51.130,    10.781,     0.000,     0.000,     0.000,     0.000,  99,    1,  0,     0.000,     0.000,   0
 11205,'3 ',   0,  99,  99,    -0.382,     0.000,     0.000,     0.000,     0.000,     0.000,  99,    1,  0,     0.000,     0.000,   0
 11206,'1 ',   1,  99,  99,    70.438,    17.297,     0.000,     0.000,     0.000,     0.000,  99,    1,  0,     0.000,     0.000,   0
 11206,'3 ',   0,  99,  99,    -0.212,     0.000,     0.000,     0.000,     0.000,     0.000,  99,    1,  0,     0.000,     0.000,   0
 11218,'1 ',   1,  99,  99,    63.062,    23.571,     0.000,     0.000,     0.000,     0.000,  99,    1,  0,     0.000,     0.000,   0
 11304,'1 ',   1,  99,  99,    62.791,    18.486,     0.000,     0.000,     0.000,     0.000,  99,    1,  0,     0.000,     0.000,   0
 11304,'3 ',   0,  99,  99,    -0.382,     0.000,     0.000,     0.000,     0.000,     0.000,  99,    1,  0,     0.000,     0.000,   0
 11305,'1 ',   1,  99,  99,    66.090,    70.740,     0.000,     0.000,     0.000,     0.000,  99,    1,  0,     0.000,     0.000,   0
 11308,'1 ',   1,  99,  99,    32.568,    24.105,     0.000,     0.000,     0.000,     0.000,  99,    1,  0,     0.000,     0.000,   0
 11309,'1 ',   1,  99,  99,    42.460,    14.450,     0.000,     0.000,     0.000,     0.000,  99,    1,  0,     0.000,     0.000,   0
 11309,'3 ',   0,  99,  99,    -0.382,     0.000,     0.000,     0.000,     0.000,     0.000,  99,    1,  0,     0.000,     0.000,   0
 11310,'1 ',   1,  99,  99,    23.391,     6.735,     0.000,     0.000,     0.000,     0.000,  99,    1,  0,     0.000,     0.000,   0
 11310,'3 ',   0,  99,  99,    -0.382,     0.000,     0.000,     0.000,     0.000,     0.000,  99,    1,  0,     0.000,     0.000,   0
 11313,'1 ',   1,  99,  99,    29.169,     8.233,     0.000,     0.000,     0.000,     0.000,  99,    1,  0,     0.000,     0.000,   0
 11314,'1 ',   1,  99,  99,    18.684,     9.853,     0.000,     0.000,     0.000,     0.000,  99,    1,  0,     0.000,     0.000,   0
 11315,'1 ',   1,  99,  99,    17.720,     0.000,     0.000,     0.000,     0.000,     0.000,  99,    1,  0,     0.000,     0.000,   0
 11315,'3 ',   0,  99,  99,    -0.382,     0.000,     0.000,     0.000,     0.000,     0.000,  99,    1,  0,     0.000,     0.000,   0
 11401,'1 ',   1,  99,  99,    78.734,    20.819,     0.000,     0.000,     0.000,     0.000,  99,    1,  0,     0.000,     0.000,   0
 11401,'3 ',   0,  99,  99,    -0.382,     0.000,     0.000,     0.000,     0.000,     0.000,  99,    1,  0,     0.000,     0.000,   0
 11403,'1 ',   1,  99,  99,    44.180,    19.502,     0.000,     0.000,     0.000,     0.000,  99,    1,  0,     0.000,     0.000,   0
 11403,'3 ',   0,  99,  99,    -0.382,     0.000,     0.000,     0.000,     0.000,     0.000,  99,    1,  0,     0.000,     0.000,   0
 11404,'1 ',   1,  99,  99,    50.519,     9.055,     0.000,     0.000,     0.000,     0.000,  99,    1,  0,     0.000,     0.000,   0
 11404,'3 ',   0,  99,  99,    -0.504,     0.000,     0.000,     0.000,     0.000,     0.000,  99,    1,  0,     0.000,     0.000,   0
 11405,'1 ',   1,  99,  99,    43.995,    15.963,     0.000,     0.000,     0.000,     0.000,  99,    1,  0,     0.000,     0.000,   0
 11405,'3 ',   0,  99,  99,    -0.434,     0.000,     0.000,     0.000,     0.000,     0.000,  99,    1,  0,     0.000,     0.000,   0
 11406,'1 ',   1,  99,  99,    43.954,    16.822,     0.000,     0.000,     0.000,     0.000,  99,    1,  0,     0.000,     0.000,   0
 11406,'3 ',   0,  99,  99,    -0.382,     0.000,     0.000,     0.000,     0.000,     0.000,  99,    1,  0,     0.000,     0.000,   0
 11407,'1 ',   1,  99,  99,    54.583,    13.713,     0.000,     0.000,     0.000,     0.000,  99,    1,  0,     0.000,     0.000,   0
 11407,'3 ',   0,  99,  99,    -0.212,     0.000,     0.000,     0.000,     0.000,     0.000,  99,    1,  0,     0.000,     0.000,   0
 11408,'1 ',   1,  99,  99,    67.190,    18.742,     0.000,     0.000,     0.000,     0.000,  99,    1,  0,     0.000,     0.000,   0
 11408,'3 ',   0,  99,  99,    -0.282,     0.000,     0.000,     0.000,     0.000,     0.000,  99,    1,  0,     0.000,     0.000,   0
 11409,'1 ',   1,  99,  99,    41.413,     9.499,     0.000,     0.000,     0.000,     0.000,  99,    1,  0,     0.000,     0.000,   0
 11409,'3 ',   0,  99,  99,    -0.382,     0.000,     0.000,     0.000,     0.000,     0.000,  99,    1,  0,     0.000,     0.000,   0
 11411,'1 ',   1,  99,  99,    29.053,     6.796,     0.000,     0.000,     0.000,     0.000,  99,    1,  0,     0.000,     0.000,   0
 11411,'3 ',   0,  99,  99,    -0.212,     0.000,     0.000,     0.000,     0.000,     0.000,  99,    1,  0,     0.000,     0.000,   0
 11413,'1 ',   1,  99,  99,    34.904,    14.259,     0.000,     0.000,     0.000,     0.000,  99,    1,  0,     0.000,     0.000,   0
...
0 / END OF LOAD DATA, BEGIN FIXED SHUNT DATA
@!   I,'ID',STATUS,   GL,        BL
 63192,'1 ',0,     0.000,     3.000
 74163,'1 ',0,     0.000,     6.000
861944,'1 ',1,     0.000,     0.000
0 / END OF FIXED SHUNT DATA, BEGIN GENERATOR DATA
@!   I,'ID',      PG,        QG,        QT,        QB,     VS,    IREG,     MBASE,     ZR,         ZX,         RT,         XT,     GTAP,STAT, RMPCT,      PT,        PB,    O1,    F1,  O2,    F2,  O3,    F3,  O4,    F4,WMOD, WPF,NREG
  9300,'1 ',     0.000,     5.748,    21.000,   -16.000,1.02533,  9300,    49.000, 0.00000E+0, 1.75000E-1, 0.00000E+0, 0.00000E+0,1.00000,0,  100.0,    37.000,     0.000,  37,1.0000
  9301,'1 ',     0.000,     5.169,    21.000,   -16.000,1.02533,  9301,    49.000, 0.00000E+0, 1.75000E-1, 0.00000E+0, 0.00000E+0,1.00000,0,  100.0,    37.000,     0.000,  37,1.0000
  9302,'1 ',     0.000,    -1.535,    21.000,   -16.000,1.02533,  9302,    49.000, 0.00000E+0, 1.75000E-1, 0.00000E+0, 0.00000E+0,1.00000,0,  100.0,    41.000,     0.000,  37,1.0000
  9303,'1 ',     0.000,    -2.742,    21.000,   -16.000,1.02533,  9303,    49.000, 0.00000E+0, 1.75000E-1, 0.00000E+0, 0.00000E+0,1.00000,0,  100.0,    37.000,     0.000,  37,1.0000
  9304,'1 ',     0.000,     0.000,    21.000,   -16.000,1.02533,  9304,    49.000, 0.00000E+0, 1.75000E-1, 0.00000E+0, 0.00000E+0,1.00000,0,  100.0,    37.000,     0.000,  37,1.0000
  9305,'1 ',     0.000,    -3.306,    21.000,   -16.000,1.02533,  9305,    49.000, 0.00000E+0, 1.75000E-1, 0.00000E+0, 0.00000E+0,1.00000,0,  100.0,    41.000,     0.000,  37,1.0000
 12555,'1 ',    90.000,    25.447,    62.829,   -37.242,1.00086, 12555,   119.270, 0.00000E+0, 2.89900E-1, 0.00000E+0, 0.00000E+0,1.00000,1,  100.0,   101.000,     0.000,  99,1.0000
 19825,'1 ',   333.000,    -1.175,   246.000,  -130.000,0.98853, 19825,   468.000, 0.00000E+0, 2.57600E-1, 0.00000E+0, 0.00000E+0,1.00000,1,  100.0,   400.000,     0.000,  99,1.0000
 19901,'1 ',   100.000,    25.401,    89.553,   -53.082,1.00000, 19901,   170.000, 0.00000E+0, 2.20000E-1, 0.00000E+0, 0.00000E+0,1.00000,0,  100.0,   120.000,     0.000,  99,1.0000
 19902,'1 ',   105.000,    -1.859,    89.553,   -53.082,0.99112, 19902,   170.000, 0.00000E+0, 2.20000E-1, 0.00000E+0, 0.00000E+0,1.00000,1,  100.0,   120.000,     0.000,  99,1.0000
 19903,'1 ',   105.000,    -2.302,    89.553,   -53.082,0.99852, 19903,   170.000, 0.00000E+0, 2.20000E-1, 0.00000E+0, 0.00000E+0,1.00000,1,  100.0,   120.000,     0.000,  99,1.0000
 19909,'1 ',   105.000,     1.673,    96.000,   -69.742,1.00000, 19909,   160.000, 0.00000E+0, 2.20000E-1, 0.00000E+0, 0.00000E+0,1.00000,0,  100.0,   131.000,     0.000,  99,1.0000
 19910,'1 ',   105.000,     1.756,    96.000,   -69.742,1.00000, 19910,   160.000, 0.00000E+0, 2.20000E-1, 0.00000E+0, 0.00000E+0,1.00000,0,  100.0,   131.000,     0.000,  99,1.0000
 19911,'1 ',   110.000,    13.668,    96.000,   -69.742,0.99638, 19911,   160.000, 0.00000E+0, 2.20000E-1, 0.00000E+0, 0.00000E+0,1.00000,1,  100.0,   131.000,     0.000,  99,1.0000
 19912,'1 ',   110.000,    13.651,    96.000,   -69.742,0.99637, 19912,   160.000, 0.00000E+0, 2.20000E-1, 0.00000E+0, 0.00000E+0,1.00000,1,  100.0,   131.000,     0.000,  99,1.0000
 19913,'1 ',   100.000,   -18.512,   123.000,   -89.357,1.00000, 19913,   205.000, 0.00000E+0, 2.23000E-1, 0.00000E+0, 0.00000E+0,1.00000,0,  100.0,   163.000,     0.000,  99,1.0000
 19914,'1 ',   137.000,   -15.556,   123.000,   -89.357,0.99519, 19914,   205.000, 0.00000E+0, 2.23000E-1, 0.00000E+0, 0.00000E+0,1.00000,1,  100.0,   163.000,     0.000,  99,1.0000
 19915,'1 ',   155.000,    50.992,   180.000,  -110.268,1.00000, 19915,   300.000, 0.00000E+0, 1.70000E-1, 0.00000E+0, 0.00000E+0,1.00000,0,  100.0,   240.000,     0.000,  99,1.0000
 19916,'1 ',   202.000,   -43.134,   180.000,  -110.268,0.98223, 19916,   300.000, 0.00000E+0, 1.70000E-1, 0.00000E+0, 0.00000E+0,1.00000,1,  100.0,   240.000,     0.000,  99,1.0000
 19917,'1 ',   202.000,   -31.708,   180.000,  -110.268,0.99536, 19917,   300.000, 0.00000E+0, 1.70000E-1, 0.00000E+0, 0.00000E+0,1.00000,1,  100.0,   240.000,     0.000,  99,1.0000
 19918,'1 ',   128.000,   -24.460,   154.936,   -91.838,0.99763, 19918,   294.118, 0.00000E+0, 2.40000E-1, 0.00000E+0, 0.00000E+0,1.00000,1,  100.0,   152.000,     0.000,  99,1.0000
 19919,'1 ',   235.000,   -29.048,   222.000,  -115.532,0.99463, 19919,   370.000, 0.00000E+0, 2.04000E-1, 0.00000E+0, 0.00000E+0,1.00000,1,  100.0,   279.000,     0.000,  99,1.0000
 19920,'1 ',   128.000,   -24.446,   154.936,   -91.838,0.99763, 19920,   294.118, 0.00000E+0, 2.50000E-1, 0.00000E+0, 0.00000E+0,1.00000,1,  100.0,   152.000,     0.000,  99,1.0000
 19921,'1 ',   235.000,   -29.252,   222.000,  -115.532,0.99466, 19921,   370.000, 0.00000E+0, 2.04000E-1, 0.00000E+0, 0.00000E+0,1.00000,1,  100.0,   279.000,     0.000,  99,1.0000
 19933,'1 ',   310.000,    21.573,   228.097,  -188.740,1.01431, 19933,   433.000, 0.00000E+0, 2.28000E-1, 0.00000E+0, 0.00000E+0,1.00000,1,  100.0,   364.000,     0.000,  99,1.0000
 19934,'1 ',   306.000,    21.103,   228.097,  -188.740,1.01438, 19934,   433.000, 0.00000E+0, 2.28000E-1, 0.00000E+0, 0.00000E+0,1.00000,1,  100.0,   364.000,     0.000,  99,1.0000
 19935,'1 ',   330.000,   114.319,   239.686,  -142.074,1.03257, 19935,   455.000, 0.00000E+0, 2.88000E-1, 0.00000E+0, 0.00000E+0,1.00000,1,  100.0,   370.000,     0.000,  99,1.0000
 19936,'1 ',   330.000,   114.310,   239.686,  -142.074,1.03257, 19936,   455.000, 0.00000E+0, 2.88000E-1, 0.00000E+0, 0.00000E+0,1.00000,1,  100.0,   370.000,     0.000,  99,1.0000
 19943,'1 ',   330.000,    26.123,   237.995,  -141.071,1.01398, 19943,   451.790, 0.00000E+0, 2.51000E-1, 0.00000E+0, 0.00000E+0,1.00000,1,  100.0,   367.000,     0.000,  99,1.0000
 19944,'1 ',   330.000,    26.123,   237.995,  -141.071,1.01398, 19944,   451.790, 0.00000E+0, 2.51000E-1, 0.00000E+0, 0.00000E+0,1.00000,1,  100.0,   367.000,     0.000,  99,1.0000
 19945,'1 ',   330.000,    21.380,   237.995,  -141.071,1.01472, 19945,   451.790, 0.00000E+0, 2.36000E-1, 0.00000E+0, 0.00000E+0,1.00000,1,  100.0,   367.000,     0.000,  99,1.0000
 19946,'1 ',   330.000,    21.380,   237.995,  -141.071,1.01472, 19946,   451.790, 0.00000E+0, 2.36000E-1, 0.00000E+0, 0.00000E+0,1.00000,1,  100.0,   367.000,     0.000,  99,1.0000
 19947,'1 ',   365.611,    24.413,   318.000,  -165.492,1.01556, 19947,   530.000, 0.00000E+0, 2.70000E-1, 0.00000E+0, 0.00000E+0,1.00000,1,  100.0,   405.900,     0.000,  99,1.0000
 19951,'1 ',   190.000,   -13.202,   161.133,   -95.512,0.99655, 19951,   305.882, 0.00000E+0, 2.23000E-1, 0.00000E+0, 0.00000E+0,1.00000,1,  100.0,   220.000,     0.000,  99,1.0000
 19952,'1 ',   190.000,   -13.202,   161.133,   -95.512,0.99655, 19952,   305.882, 0.00000E+0, 2.23000E-1, 0.00000E+0, 0.00000E+0,1.00000,1,  100.0,   220.000,     0.000,  99,1.0000
 19953,'1 ',   290.000,    -7.408,   201.389,  -119.373,0.99334, 19953,   382.300, 0.00000E+0, 2.82000E-1, 0.00000E+0, 0.00000E+0,1.00000,1,  100.0,   345.000,     0.000,  99,1.0000
 19954,'1 ',   337.000,   -25.352,   248.641,  -147.382,0.99161, 19954,   472.000, 0.00000E+0, 2.68800E-1, 0.00000E+0, 0.00000E+0,1.00000,1,  100.0,   400.000,     0.000,  99,1.0000
 19955,'1 ',   337.000,   -25.219,   248.641,  -147.382,0.99160, 19955,   472.000, 0.00000E+0, 2.68800E-1, 0.00000E+0, 0.00000E+0,1.00000,1,  100.0,   400.000,     0.000,  99,1.0000
 19961,'1 ',   345.000,    14.739,   279.195,  -165.492,1.00430, 19961,   530.000, 0.00000E+0, 2.70000E-1, 0.00000E+0, 0.00000E+0,1.00000,1,  100.0,   410.000,     0.000,  99,1.0000
 19962,'1 ',   345.000,    14.854,   279.195,  -165.492,1.00429, 19962,   530.000, 0.00000E+0, 2.70000E-1, 0.00000E+0, 0.00000E+0,1.00000,1,  100.0,   410.000,     0.000,  99,1.0000
 19965,'1 ',   340.000,    14.961,   279.195,  -165.492,1.00412, 19965,   530.000, 0.00000E+0, 2.70000E-1, 0.00000E+0, 0.00000E+0,1.00000,1,  100.0,   403.800,     0.000,  99,1.0000
 19971,'1 ',   140.000,    -4.039,   110.624,   -91.537,1.00358, 19971,   210.000, 0.00000E+0, 1.50000E-1, 0.00000E+0, 0.00000E+0,1.00000,1,  100.0,   163.000,     0.000,  99,1.0000
 19972,'1 ',   140.000,    -3.320,   110.624,   -91.537,1.00332, 19972,   210.000, 0.00000E+0, 1.50000E-1, 0.00000E+0, 0.00000E+0,1.00000,1,  100.0,   163.000,     0.000,  99,1.0000
 19973,'1 ',   138.000,    -3.751,   118.526,   -98.075,1.00318, 19973,   225.000, 0.00000E+0, 1.60000E-1, 0.00000E+0, 0.00000E+0,1.00000,1,  100.0,   164.000,     0.000,  99,1.0000
 19988,'1 ',    58.000,    16.216,    54.996,   -32.599,1.00107, 19988,   104.400, 0.00000E+0, 2.49000E-1, 0.00000E+0, 0.00000E+0,1.00000,1,  100.0,    88.000,     0.000,  99,1.0000
 19989,'1 ',    58.000,    16.216,    54.996,   -32.599,1.00107, 19989,   104.400, 0.00000E+0, 2.49000E-1, 0.00000E+0, 0.00000E+0,1.00000,1,  100.0,    88.000,     0.000,  99,1.0000
 19998,'1 ',   110.000,    44.271,    90.000,   -46.837,1.03502, 19998,   150.000, 0.00000E+0, 1.55000E-1, 0.00000E+0, 0.00000E+0,1.00000,1,  100.0,   110.000,     0.000,  99,1.0000
 19999,'1 ',   110.000,    44.175,    90.000,   -46.837,1.03500, 19999,   150.000, 0.00000E+0, 1.55000E-1, 0.00000E+0, 0.00000E+0,1.00000,1,  100.0,   110.000,     0.000,  99,1.0000
 51900,'1 ',     0.000,   -13.575,    41.312,   -32.086,1.03466, 51900,    60.000, 0.00000E+0, 9.99900E+3, 0.00000E+0, 0.00000E+0,1.00000,0,  100.0,    50.000,     0.000,  60,1.0000
 51903,'1 ',   570.000,   -62.602,   371.847,  -197.210,0.99514, 51903,   705.880, 0.00000E+0, 2.08000E-1, 0.00000E+0, 0.00000E+0,1.00000,1,   50.0,   600.000,     0.000, 114,1.0000
 51904,'1 ',   570.000,   -62.608,   371.847,  -197.210,0.99514, 51903,   705.880, 0.00000E+0, 2.08000E-1, 0.00000E+0, 0.00000E+0,1.00000,1,   50.0,   600.000,     0.000, 114,1.0000
 59001,'1 ',   141.075,     0.608,    83.170,   -67.360,1.01731, 59001,   171.000, 0.00000E+0, 1.68000E-1, 0.00000E+0, 0.00000E+0,1.00000,1,  100.0,   142.000,    88.000,  22,1.0000
 59002,'1 ',   141.075,    -6.648,    83.170,   -67.360,1.01239, 59002,   171.000, 0.00000E+0, 1.68000E-1, 0.00000E+0, 0.00000E+0,1.00000,1,  100.0,   144.000,    88.000,  22,1.0000
 59003,'1 ',   141.075,    -6.648,    83.170,   -67.360,1.01239, 59003,   171.000, 0.00000E+0, 1.68000E-1, 0.00000E+0, 0.00000E+0,1.00000,1,  100.0,   142.000,    88.000,  22,1.0000
 59004,'1 ',   218.025,    -9.873,   146.000,  -117.000,1.01095, 59004,   318.000, 0.00000E+0, 1.99000E-1, 0.00000E+0, 0.00000E+0,1.00000,1,  100.0,   240.000,   135.000,  22,1.0000
 59011,'1 ',   202.200,   -25.629,   220.000,  -160.000,1.00739, 59011,   353.000, 0.00000E+0, 2.64000E-1, 0.00000E+0, 0.00000E+0,1.00000,1,  100.0,   285.000,   140.000,  23,1.0000
 59012,'1 ',     0.000,    20.078,   220.000,  -160.000,1.02467, 59012,   353.000, 0.00000E+0, 2.64000E-1, 0.00000E+0, 0.00000E+0,1.00000,0,  100.0,   285.000,   140.000,  23,1.0000
 59013,'1 ',   285.570,   -19.206,   109.233,   -83.693,1.01242, 59013,   353.000, 0.00000E+0, 2.64000E-1, 0.00000E+0, 0.00000E+0,1.00000,1,  100.0,   282.220,   140.000,  23,1.0000
 59014,'1 ',   285.390,   -16.879,   120.000,   -88.000,1.01330, 59014,   353.000, 0.00000E+0, 2.64000E-1, 0.00000E+0, 0.00000E+0,1.00000,1,  100.0,   284.040,   140.000,  23,1.0000
 59015,'1 ',   471.950,   -18.312,   337.500,  -215.000,1.01361, 59015,   620.000, 0.00000E+0, 1.76000E-1, 0.00000E+0, 0.00000E+0,1.00000,1,  100.0,   462.000,   260.000,  23,1.0000
 59016,'1 ',   471.000,   -18.008,   337.500,  -215.000,1.01359, 59016,   620.000, 0.00000E+0, 1.76000E-1, 0.00000E+0, 0.00000E+0,0.00000,1,  100.0,   463.500,   260.000,  23,1.0000
...